
**** 09/28/20 18:29:36 ****** PSpice Lite (October 2012) ****** ID# 10813 ****

 ** Profile: "SCHEMATIC1-Time-domain-sim"  [ C:\USERS\BENJAMIN BEAUDOIN\DOCUMENTS\GITHUB\ALTIUM-GITHUB-REPO-BEAUD082\ALTIUM PROJECTS 


 ****     CIRCUIT DESCRIPTION


******************************************************************************




** Creating circuit file "Time-domain-sim.cir" 
** WARNING: THIS AUTOMATICALLY GENERATED FILE MAY BE OVERWRITTEN BY SUBSEQUENT SIMULATIONS

*Libraries: 
* Profile Libraries :
* Local Libraries :
* From [PSPICE NETLIST] section of C:\SPB_Data\cdssetup\OrCAD_PSpice/16.6.0/PSpice.ini file:
.lib "nomd.lib" 

*Analysis directives: 
.TRAN  0 100us 0 
.OPTIONS ADVCONV
.PROBE64 V(alias(*)) I(alias(*)) W(alias(*)) D(alias(*)) NOISE(alias(*)) 
.INC "..\SCHEMATIC1.net" 



**** INCLUDING SCHEMATIC1.net ****
* source INDEPENDENT STUDY SIMULATION TEST
R_R1         N00268 N00355  2200 TC=0,0 
R_R2         N00268 0  2200 TC=0,0 
V_V1         N00355 0 DC 3.3V  
R_R3         N00795 0  1M TC=0,0 
V_V2         N00519 0 DC 7.5V  
V_V3         N00668 0  
+PULSE 0 3.3V 0 0.01uS 0.01uS 5uS 10uS

**** RESUMING Time-domain-sim.cir ****
.END

ERROR(ORPSIM-15141): Less than 2 connections at node N00795.
